
#======================================================================
# CRYSTAL DATA
#----------------------------------------------------------------------
data_VESTA_phase_1

_chemical_name_common                  '"As80 Al24 Ga52"'
_cell_length_a                         11.256000
_cell_length_b                         5.628000
_cell_length_c                         84.419998
_cell_angle_alpha                      90.000000
_cell_angle_beta                       90.000000
_cell_angle_gamma                      90.000000
_cell_volume                           5347.902465
_space_group_name_H-M_alt              'P 1'
_space_group_IT_number                 1

loop_
_space_group_symop_operation_xyz
   'x, y, z'

loop_
   _atom_site_label
   _atom_site_occupancy
   _atom_site_fract_x
   _atom_site_fract_y
   _atom_site_fract_z
   _atom_site_adp_type
   _atom_site_U_iso_or_equiv
   _atom_site_type_symbol
   As1        1.0     0.375000     0.250000     0.183330    Uiso  ? As
   As2        1.0     0.125000     0.750000     0.183330    Uiso  ? As
   Al1        1.0     0.000000     0.000000     0.200000    Uiso  ? Al
   Ga1        1.0     0.000000     0.500000     0.233330    Uiso  ? Ga
   Ga2        1.0     0.250000     0.000000     0.233330    Uiso  ? Ga
   Al2        1.0     0.250000     0.500000     0.200000    Uiso  ? Al
   As3        1.0     0.125000     0.250000     0.216670    Uiso  ? As
   As4        1.0     0.375000     0.750000     0.216670    Uiso  ? As
   As5        1.0     0.375000     0.250000     0.250000    Uiso  ? As
   As6        1.0     0.125000     0.750000     0.250000    Uiso  ? As
   Ga3        1.0     0.000000     0.000000     0.266670    Uiso  ? Ga
   Al3        1.0     0.000000     0.500000     0.300000    Uiso  ? Al
   Al4        1.0     0.250000     0.000000     0.300000    Uiso  ? Al
   Ga4        1.0     0.250000     0.500000     0.266670    Uiso  ? Ga
   As7        1.0     0.125000     0.250000     0.283330    Uiso  ? As
   As8        1.0     0.375000     0.750000     0.283330    Uiso  ? As
   As9        1.0     0.375000     0.250000     0.316670    Uiso  ? As
   As10       1.0     0.125000     0.750000     0.316670    Uiso  ? As
   Ga5        1.0     0.000000     0.000000     0.333330    Uiso  ? Ga
   Ga6        1.0     0.000000     0.500000     0.366670    Uiso  ? Ga
   Ga7        1.0     0.250000     0.000000     0.366670    Uiso  ? Ga
   Ga8        1.0     0.250000     0.500000     0.333330    Uiso  ? Ga
   As11       1.0     0.125000     0.250000     0.350000    Uiso  ? As
   As12       1.0     0.375000     0.750000     0.350000    Uiso  ? As
   As13       1.0     0.375000     0.250000     0.383330    Uiso  ? As
   As14       1.0     0.125000     0.750000     0.383330    Uiso  ? As
   Al5        1.0     0.000000     0.000000     0.400000    Uiso  ? Al
   Ga9        1.0     0.000000     0.500000     0.433330    Uiso  ? Ga
   Ga10       1.0     0.250000     0.000000     0.433330    Uiso  ? Ga
   Al6        1.0     0.250000     0.500000     0.400000    Uiso  ? Al
   As15       1.0     0.125000     0.250000     0.416670    Uiso  ? As
   As16       1.0     0.375000     0.750000     0.416670    Uiso  ? As
   As17       1.0     0.375000     0.250000     0.450000    Uiso  ? As
   As18       1.0     0.125000     0.750000     0.450000    Uiso  ? As
   Ga11       1.0     0.000000     0.000000     0.466670    Uiso  ? Ga
   Ga12       1.0     0.000000     0.500000     0.500000    Uiso  ? Ga
   Ga13       1.0     0.250000     0.000000     0.500000    Uiso  ? Ga
   Ga14       1.0     0.250000     0.500000     0.466670    Uiso  ? Ga
   As19       1.0     0.125000     0.250000     0.483330    Uiso  ? As
   As20       1.0     0.375000     0.750000     0.483330    Uiso  ? As
   As21       1.0     0.375000     0.250000     0.516670    Uiso  ? As
   As22       1.0     0.125000     0.750000     0.516670    Uiso  ? As
   Ga15       1.0     0.000000     0.000000     0.533330    Uiso  ? Ga
   Ga16       1.0     0.000000     0.500000     0.566670    Uiso  ? Ga
   Ga17       1.0     0.250000     0.000000     0.566670    Uiso  ? Ga
   Ga18       1.0     0.250000     0.500000     0.533330    Uiso  ? Ga
   As23       1.0     0.125000     0.250000     0.550000    Uiso  ? As
   As24       1.0     0.375000     0.750000     0.550000    Uiso  ? As
   As25       1.0     0.375000     0.250000     0.583330    Uiso  ? As
   As26       1.0     0.125000     0.750000     0.583330    Uiso  ? As
   Al7        1.0     0.000000     0.000000     0.600000    Uiso  ? Al
   Ga19       1.0     0.000000     0.500000     0.633330    Uiso  ? Ga
   Ga20       1.0     0.250000     0.000000     0.633330    Uiso  ? Ga
   Al8        1.0     0.250000     0.500000     0.600000    Uiso  ? Al
   As27       1.0     0.125000     0.250000     0.616670    Uiso  ? As
   As28       1.0     0.375000     0.750000     0.616670    Uiso  ? As
   As29       1.0     0.375000     0.250000     0.650000    Uiso  ? As
   As30       1.0     0.125000     0.750000     0.650000    Uiso  ? As
   Ga21       1.0     0.000000     0.000000     0.666670    Uiso  ? Ga
   Al9        1.0     0.000000     0.500000     0.700000    Uiso  ? Al
   Al10       1.0     0.250000     0.000000     0.700000    Uiso  ? Al
   Ga22       1.0     0.250000     0.500000     0.666670    Uiso  ? Ga
   As31       1.0     0.125000     0.250000     0.683330    Uiso  ? As
   As32       1.0     0.375000     0.750000     0.683330    Uiso  ? As
   As33       1.0     0.375000     0.250000     0.716670    Uiso  ? As
   As34       1.0     0.125000     0.750000     0.716670    Uiso  ? As
   Ga23       1.0     0.000000     0.000000     0.733330    Uiso  ? Ga
   Ga24       1.0     0.000000     0.500000     0.766670    Uiso  ? Ga
   Ga25       1.0     0.250000     0.000000     0.766670    Uiso  ? Ga
   Ga26       1.0     0.250000     0.500000     0.733330    Uiso  ? Ga
   As35       1.0     0.125000     0.250000     0.750000    Uiso  ? As
   As36       1.0     0.375000     0.750000     0.750000    Uiso  ? As
   As37       1.0     0.375000     0.250000     0.783330    Uiso  ? As
   As38       1.0     0.125000     0.750000     0.783330    Uiso  ? As
   Al11       1.0     0.000000     0.000000     0.800000    Uiso  ? Al
   Al12       1.0     0.250000     0.500000     0.800000    Uiso  ? Al
   As39       1.0     0.125000     0.250000     0.816670    Uiso  ? As
   As40       1.0     0.375000     0.750000     0.816670    Uiso  ? As
   As41       1.0     0.875000     0.250000     0.183330    Uiso  ? As
   As42       1.0     0.625000     0.750000     0.183330    Uiso  ? As
   Al13       1.0     0.500000     0.000000     0.200000    Uiso  ? Al
   Ga27       1.0     0.500000     0.500000     0.233330    Uiso  ? Ga
   Ga28       1.0     0.750000     0.000000     0.233330    Uiso  ? Ga
   Al14       1.0     0.750000     0.500000     0.200000    Uiso  ? Al
   As43       1.0     0.625000     0.250000     0.216670    Uiso  ? As
   As44       1.0     0.875000     0.750000     0.216670    Uiso  ? As
   As45       1.0     0.875000     0.250000     0.250000    Uiso  ? As
   As46       1.0     0.625000     0.750000     0.250000    Uiso  ? As
   Ga29       1.0     0.500000     0.000000     0.266670    Uiso  ? Ga
   Al15       1.0     0.500000     0.500000     0.300000    Uiso  ? Al
   Al16       1.0     0.750000     0.000000     0.300000    Uiso  ? Al
   Ga30       1.0     0.750000     0.500000     0.266670    Uiso  ? Ga
   As47       1.0     0.625000     0.250000     0.283330    Uiso  ? As
   As48       1.0     0.875000     0.750000     0.283330    Uiso  ? As
   As49       1.0     0.875000     0.250000     0.316670    Uiso  ? As
   As50       1.0     0.625000     0.750000     0.316670    Uiso  ? As
   Ga31       1.0     0.500000     0.000000     0.333330    Uiso  ? Ga
   Ga32       1.0     0.500000     0.500000     0.366670    Uiso  ? Ga
   Ga33       1.0     0.750000     0.000000     0.366670    Uiso  ? Ga
   Ga34       1.0     0.750000     0.500000     0.333330    Uiso  ? Ga
   As51       1.0     0.625000     0.250000     0.350000    Uiso  ? As
   As52       1.0     0.875000     0.750000     0.350000    Uiso  ? As
   As53       1.0     0.875000     0.250000     0.383330    Uiso  ? As
   As54       1.0     0.625000     0.750000     0.383330    Uiso  ? As
   Al17       1.0     0.500000     0.000000     0.400000    Uiso  ? Al
   Ga35       1.0     0.500000     0.500000     0.433330    Uiso  ? Ga
   Ga36       1.0     0.750000     0.000000     0.433330    Uiso  ? Ga
   Al18       1.0     0.750000     0.500000     0.400000    Uiso  ? Al
   As55       1.0     0.625000     0.250000     0.416670    Uiso  ? As
   As56       1.0     0.875000     0.750000     0.416670    Uiso  ? As
   As57       1.0     0.875000     0.250000     0.450000    Uiso  ? As
   As58       1.0     0.625000     0.750000     0.450000    Uiso  ? As
   Ga37       1.0     0.500000     0.000000     0.466670    Uiso  ? Ga
   Ga38       1.0     0.500000     0.500000     0.500000    Uiso  ? Ga
   Ga39       1.0     0.750000     0.000000     0.500000    Uiso  ? Ga
   Ga40       1.0     0.750000     0.500000     0.466670    Uiso  ? Ga
   As59       1.0     0.625000     0.250000     0.483330    Uiso  ? As
   As60       1.0     0.875000     0.750000     0.483330    Uiso  ? As
   As61       1.0     0.875000     0.250000     0.516670    Uiso  ? As
   As62       1.0     0.625000     0.750000     0.516670    Uiso  ? As
   Ga41       1.0     0.500000     0.000000     0.533330    Uiso  ? Ga
   Ga42       1.0     0.500000     0.500000     0.566670    Uiso  ? Ga
   Ga43       1.0     0.750000     0.000000     0.566670    Uiso  ? Ga
   Ga44       1.0     0.750000     0.500000     0.533330    Uiso  ? Ga
   As63       1.0     0.625000     0.250000     0.550000    Uiso  ? As
   As64       1.0     0.875000     0.750000     0.550000    Uiso  ? As
   As65       1.0     0.875000     0.250000     0.583330    Uiso  ? As
   As66       1.0     0.625000     0.750000     0.583330    Uiso  ? As
   Al19       1.0     0.500000     0.000000     0.600000    Uiso  ? Al
   Ga45       1.0     0.500000     0.500000     0.633330    Uiso  ? Ga
   Ga46       1.0     0.750000     0.000000     0.633330    Uiso  ? Ga
   Al20       1.0     0.750000     0.500000     0.600000    Uiso  ? Al
   As67       1.0     0.625000     0.250000     0.616670    Uiso  ? As
   As68       1.0     0.875000     0.750000     0.616670    Uiso  ? As
   As69       1.0     0.875000     0.250000     0.650000    Uiso  ? As
   As70       1.0     0.625000     0.750000     0.650000    Uiso  ? As
   Ga47       1.0     0.500000     0.000000     0.666670    Uiso  ? Ga
   Al21       1.0     0.500000     0.500000     0.700000    Uiso  ? Al
   Al22       1.0     0.750000     0.000000     0.700000    Uiso  ? Al
   Ga48       1.0     0.750000     0.500000     0.666670    Uiso  ? Ga
   As71       1.0     0.625000     0.250000     0.683330    Uiso  ? As
   As72       1.0     0.875000     0.750000     0.683330    Uiso  ? As
   As73       1.0     0.875000     0.250000     0.716670    Uiso  ? As
   As74       1.0     0.625000     0.750000     0.716670    Uiso  ? As
   Ga49       1.0     0.500000     0.000000     0.733330    Uiso  ? Ga
   Ga50       1.0     0.500000     0.500000     0.766670    Uiso  ? Ga
   Ga51       1.0     0.750000     0.000000     0.766670    Uiso  ? Ga
   Ga52       1.0     0.750000     0.500000     0.733330    Uiso  ? Ga
   As75       1.0     0.625000     0.250000     0.750000    Uiso  ? As
   As76       1.0     0.875000     0.750000     0.750000    Uiso  ? As
   As77       1.0     0.875000     0.250000     0.783330    Uiso  ? As
   As78       1.0     0.625000     0.750000     0.783330    Uiso  ? As
   Al23       1.0     0.500000     0.000000     0.800000    Uiso  ? Al
   Al24       1.0     0.750000     0.500000     0.800000    Uiso  ? Al
   As79       1.0     0.625000     0.250000     0.816670    Uiso  ? As
   As80       1.0     0.875000     0.750000     0.816670    Uiso  ? As
