# CIF file generated by supercell program. See https://orex.github.io/supercell
# E_e = 0.0000000000 eV
data_
_chemical_name_common ''
_cell_length_a 4.06599
_cell_length_b 4.06599
_cell_length_c 4.06599
_cell_angle_alpha 60
_cell_angle_beta 60
_cell_angle_gamma 60
_space_group_IT_number 1
_space_group_name_H-M_alt 'P 1'
_space_group_name_Hall 'P 1'
loop_
    _space_group_symop_operation_xyz
    x,y,z
loop_
    _atom_site_label
    _atom_site_type_symbol
    _atom_site_fract_x
    _atom_site_fract_y
    _atom_site_fract_z
    _atom_site_occupancy
    As1     As   0.25000   0.25000   0.25000   1.000
    Ga0     Ga   0.00000   0.00000   0.00000   1.000
