
#======================================================================
# CRYSTAL DATA
#----------------------------------------------------------------------
data_VESTA_phase_1

_chemical_name_common                  '"Ga3 Al2 As4"'
_cell_length_a                         5.750180
_cell_length_b                         5.750180
_cell_length_c                         11.500400
_cell_angle_alpha                      90.000000
_cell_angle_beta                       90.000000
_cell_angle_gamma                      90.000000
_cell_volume                           380.255737
_space_group_name_H-M_alt              'P 1'
_space_group_IT_number                 1

loop_
_space_group_symop_operation_xyz
   'x, y, z'

loop_
   _atom_site_label
   _atom_site_occupancy
   _atom_site_fract_x
   _atom_site_fract_y
   _atom_site_fract_z
   _atom_site_adp_type
   _atom_site_U_iso_or_equiv
   _atom_site_type_symbol
   Ga1        1.0     0.125000     0.125000     0.250000    Uiso  ? Ga
   Ga2        1.0     0.625000     0.625000     0.250000    Uiso  ? Ga
   Al1        1.0     0.625000     0.125000     0.500000    Uiso  ? Al
   Al2        1.0     0.125000     0.625000     0.500000    Uiso  ? Al
   As1        1.0     0.375000     0.375000     0.375000    Uiso  ? As
   As2        1.0     0.375000     0.875000     0.625000    Uiso  ? As
   As3        1.0     0.875000     0.875000     0.375000    Uiso  ? As
   As4        1.0     0.875000     0.375000     0.625000    Uiso  ? As
   Ga3        1.0     0.625000     0.625000     0.750000    Uiso  ? Ga
